test/results/case5/base/network_data.json
{"converter":{},"sn":{"1":{"bus":{"4":{"zone":1,"bus_i":4,"bus_type":3,"vmax":1.1,"source_id":["bus",4],"area":1,"vmin":0.9,"index":4,"va":0.0,"vm":1.0,"base_kv":230.0},"1":{"zone":1,"bus_i":1,"bus_type":2,"vmax":1.1,"source_id":["bus",1],"area":1,"vmin":0.9,"index":1,"va":0.0,"vm":1.0,"base_kv":230.0},"5":{"zone":1,"bus_i":5,"bus_type":2,"vmax":1.1,"source_id":["bus",5],"area":1,"vmin":0.9,"index":5,"va":0.0,"vm":1.0,"base_kv":230.0},"2":{"zone":1,"bus_i":2,"bus_type":1,"vmax":1.1,"source_id":["bus",2],"area":1,"vmin":0.9,"index":2,"va":0.0,"vm":1.0,"base_kv":230.0},"3":{"zone":1,"bus_i":3,"bus_type":2,"vmax":1.1,"source_id":["bus",3],"area":1,"vmin":0.9,"index":3,"va":0.0,"vm":1.0,"base_kv":230.0}},"source_type":"matpower","name":"pglib_opf_case5_pjm","dcline":{},"source_version":"2","gen":{"4":{"pg":1.0,"model":2,"shutdown":0.0,"startup":0.0,"qg":0.0,"gen_bus":4,"pmax":2.0,"vg":1.0,"mbase":100.0,"source_id":["gen",4],"index":4,"cost":[0.0,4000.0,0.0],"qmax":1.5,"gen_status":1,"qmin":-1.5,"pmin":0.0,"ncost":3},"1":{"pg":0.2,"model":2,"shutdown":0.0,"startup":0.0,"qg":0.0,"gen_bus":1,"pmax":0.4,"vg":1.0,"mbase":100.0,"source_id":["gen",1],"index":1,"cost":[0.0,1400.0,0.0],"qmax":0.3,"gen_status":1,"qmin":-0.3,"pmin":0.0,"ncost":3},"5":{"pg":3.0,"model":2,"shutdown":0.0,"startup":0.0,"qg":0.0,"gen_bus":5,"pmax":6.0,"vg":1.0,"mbase":100.0,"source_id":["gen",5],"index":5,"cost":[0.0,1000.0,0.0],"qmax":4.5,"gen_status":1,"qmin":-4.5,"pmin":0.0,"ncost":3},"2":{"pg":0.85,"model":2,"shutdown":0.0,"startup":0.0,"qg":0.0,"gen_bus":1,"pmax":1.7,"vg":1.0,"mbase":100.0,"source_id":["gen",2],"index":2,"cost":[0.0,1500.0,0.0],"qmax":1.275,"gen_status":1,"qmin":-1.275,"pmin":0.0,"ncost":3},"3":{"pg":2.6,"model":2,"shutdown":0.0,"startup":0.0,"qg":0.0,"gen_bus":3,"pmax":5.2,"vg":1.0,"mbase":100.0,"source_id":["gen",3],"index":3,"cost":[0.0,3000.0,0.0],"qmax":3.9,"gen_status":1,"qmin":-3.9,"pmin":0.0,"ncost":3}},"branch":{"4":{"br_r":0.00108,"rate_a":4.26,"shift":0.0,"rate_b":4.26,"br_x":0.0108,"rate_c":4.26,"g_to":0.0,"g_fr":0.0,"source_id":["branch",4],"b_fr":0.00926,"f_bus":2,"br_status":1,"t_bus":3,"b_to":0.00926,"index":4,"angmin":-0.5235987755982988,"angmax":0.5235987755982988,"transformer":false,"tap":1.0},"1":{"br_r":0.00281,"rate_a":4.0,"shift":0.0,"rate_b":4.0,"br_x":0.0281,"rate_c":4.0,"g_to":0.0,"g_fr":0.0,"source_id":["branch",1],"b_fr":0.00356,"f_bus":1,"br_status":1,"t_bus":2,"b_to":0.00356,"index":1,"angmin":-0.5235987755982988,"angmax":0.5235987755982988,"transformer":false,"tap":1.0},"5":{"br_r":0.00297,"rate_a":4.26,"shift":0.0,"rate_b":4.26,"br_x":0.0297,"rate_c":4.26,"g_to":0.0,"g_fr":0.0,"source_id":["branch",5],"b_fr":0.00337,"f_bus":3,"br_status":1,"t_bus":4,"b_to":0.00337,"index":5,"angmin":-0.5235987755982988,"angmax":0.5235987755982988,"transformer":false,"tap":1.0},"2":{"br_r":0.00304,"rate_a":4.26,"shift":0.0,"rate_b":4.26,"br_x":0.0304,"rate_c":4.26,"g_to":0.0,"g_fr":0.0,"source_id":["branch",2],"b_fr":0.00329,"f_bus":1,"br_status":1,"t_bus":4,"b_to":0.00329,"index":2,"angmin":-0.5235987755982988,"angmax":0.5235987755982988,"transformer":false,"tap":1.0},"6":{"br_r":0.00297,"rate_a":2.4,"shift":0.0,"rate_b":2.4,"br_x":0.0297,"rate_c":2.4,"g_to":0.0,"g_fr":0.0,"source_id":["branch",6],"b_fr":0.00337,"f_bus":4,"br_status":1,"t_bus":5,"b_to":0.00337,"index":6,"angmin":-0.5235987755982988,"angmax":0.5235987755982988,"transformer":false,"tap":1.0},"3":{"br_r":0.00064,"rate_a":4.26,"shift":0.0,"rate_b":4.26,"br_x":0.0064,"rate_c":4.26,"g_to":0.0,"g_fr":0.0,"source_id":["branch",3],"b_fr":0.01563,"f_bus":1,"br_status":1,"t_bus":5,"b_to":0.01563,"index":3,"angmin":-0.5235987755982988,"angmax":0.5235987755982988,"transformer":false,"tap":1.0}},"storage":{},"switch":{},"f_base":60,"baseMVA":100.0,"variable_f":false,"per_unit":true,"areas":{"1":{"source_id":["areas",1],"col_1":1,"col_2":4,"index":1}},"shunt":{},"load":{"1":{"source_id":["bus",2],"load_bus":2,"status":1,"qd":0.9861,"pd":3.0,"index":1},"2":{"source_id":["bus",3],"load_bus":3,"status":1,"qd":0.9861,"pd":3.0,"index":2},"3":{"source_id":["bus",4],"load_bus":4,"status":1,"qd":1.3147,"pd":4.0,"index":3}}}}}